2018/xuanzhang/backup_of_SC_EMS (CA up to call sub-query sequantial )/SC_EMS/input/pf_sc_20171207_11100edgeinfo.csv
tap_bus,z_bus,area,zone,circuit,type,R,X,B,Line_Q1,Line_Q2,Line_Q3,control_bus,side,transformer_final_turns_ratio,transformer_final_angle,Min_tap,Max_tap,step_size,Min_volt,Max_volt,M_P_TLPF,M_Q_TLPF,M_P_TLPF_reverse,M_Q_TLPF_reverse,Ri_eP,Ri_eQ,Ri_eP_reverse,Ri_eQ_reverse
1,2,1,1,1,0,0.000055,0.001198,0.078281,1.2,1.5,2,0,0,0,0,0,0,0,0,0,-28.9298,-2.49276,28.9538,2.73409,1,1,1,1
1,2,1,1,1,0,0.000065,0.001219,0.151109,1.2,1.5,2,0,0,0,0,0,0,0,0,0,0,0,0,0,1,1,1,1
1,24,1,1,1,0,0.001691,0.020206,1.191482,1.2,1.5,2,0,0,0,0,0,0,0,0,0,4.69351,0.0595504,-4.67547,-2.2504,1,1,1,1
1,24,1,1,1,0,0.00152,0.019908,1.137506,1.2,1.5,2,0,0,0,0,0,0,0,0,0,0,0,0,0,1,1,1,1
1,108,1,1,1,0,0.000434,0.00627,0.358346,1.2,1.5,2,0,0,0,0,0,0,0,0,0,7.78367,-0.545103,-7.77153,-0.0500973,1,1,1,1
1,108,1,1,1,0,0.000409,0.006475,0.381582,1.2,1.5,2,0,0,0,0,0,0,0,0,0,0,0,0,0,1,1,1,1
1,148,1,1,1,0,0.000887,0.012727,0.721233,1.2,1.5,2,0,0,0,0,0,0,0,0,0,-3.11462,2.22765,3.12234,-3.59881,1,1,1,1
1,148,1,1,1,0,0.00086,0.012727,0.711021,1.2,1.5,2,0,0,0,0,0,0,0,0,0,0,0,0,0,1,1,1,1
1,366,1,1,1,0,0.000289,0.004878,0.274611,1.2,1.5,2,0,0,0,0,0,0,0,0,0,7.27267,-0.544562,-7.2654,0.0897479,1,1,1,1
1,366,1,1,1,0,0.000289,0.004871,0.273832,1.2,1.5,2,0,0,0,0,0,0,0,0,0,0,0,0,0,1,1,1,1
1,899,1,1,1,1,0.000079,0.018333,0,1.2,1.5,2,0,0,1,0,0,0,0,0,0,3.7522,0.729113,-3.75111,-0.474748,1,1,1,1
1,901,1,1,1,1,0.000113,0.017933,0,1.2,1.5,2,0,0,1,0,0,0,0,0,0,3.84574,0.726325,-3.8441,-0.465476,1,1,1,1
2,3,1,1,1,0,0.000544,0.008073,0.523577,1.2,1.5,2,0,0,0,0,0,0,0,0,0,-14.3984,8.60282,14.5456,-6.94423,1,1,1,1
2,6,1,1,1,0,0.000544,0.008073,0.523577,1.2,1.5,2,0,0,0,0,0,0,0,0,0,-14.4345,8.64379,14.5826,-6.97157,1,1,1,1
4,5,1,1,1,0,0.000738,0.009575,0.582413,1.2,1.5,2,0,0,0,0,0,0,0,0,0,-7.88508,-8.30102,7.91051,6.60152,1,1,1,1
4,5,1,1,1,0,0.000731,0.009318,0.596693,1.2,1.5,2,0,0,0,0,0,0,0,0,0,0,0,0,0,1,1,1,1
4,5,1,1,1,0,0.000759,0.009541,0.578865,1.2,1.5,2,0,0,0,0,0,0,0,0,0,0,0,0,0,1,1,1,1
4,15,1,1,1,0,0.000531,0.007651,0.421177,1.2,1.5,2,0,0,0,0,0,0,0,0,0,7.03081,6.30577,-7.00785,-6.91337,1,1,1,1
4,15,1,1,1,0,0.000552,0.007645,0.427062,1.2,1.5,2,0,0,0,0,0,0,0,0,0,0,0,0,0,1,1,1,1
4,884,1,1,1,1,0.000089,0.01838,0,1.2,1.5,2,0,0,1,0,0,0,0,0,0,2.41639,1.66144,-2.41571,-1.52104,1,1,1,1
4,886,1,1,1,1,0.000087,0.018247,0,1.2,1.5,2,0,0,1,0,0,0,0,0,0,2.42594,1.67465,-2.42527,-1.5338,1,1,1,1
7,8,1,1,1,0,0.000301,0.003585,0.184517,1.2,1.5,2,0,0,0,0,0,0,0,0,0,9.14435,-3.42999,-9.13685,3.19241,1,1,1,1
7,8,1,1,1,0,0.00004,0.003585,0.183737,1.2,1.5,2,0,0,0,0,0,0,0,0,0,0,0,0,0,1,1,1,1
7,648,1,1,1,1,0.000283,0.022226,0,1.2,1.5,2,0,0,1.047619,0,0,0,0,0,0,-4.5166,1.3354,4.52304,-0.829181,1,1,1,1
7,649,1,1,1,1,0.000283,0.022226,0,1.2,1.5,2,0,0,1.047619,0,0,0,0,0,0,-0.220324,0.831873,0.220539,-0.814974,1,1,1,1
7,650,1,1,1,1,0.000283,0.022226,0,1.2,1.5,2,0,0,1.047619,0,0,0,0,0,0,-4.40748,1.26274,4.41359,-0.783052,1,1,1,1
8,89,1,1,1,0,0.000403,0.009598,0.565839,1.2,1.5,2,0,0,0,0,0,0,0,0,0,-1.13059,2.0576,1.13217,-3.23035,1,1,1,1
8,89,1,1,1,0,0.000409,0.009578,0.568479,1.2,1.5,2,0,0,0,0,0,0,0,0,0,0,0,0,0,1,1,1,1
8,329,1,1,1,0,0.001441,0.027405,1.582888,1.2,1.5,2,0,0,0,0,0,0,0,0,0,6.74736,-2.64381,-6.71556,-0.208682,1,1,1,1
8,329,1,1,1,0,0.001517,0.027405,1.571117,1.2,1.5,2,0,0,0,0,0,0,0,0,0,0,0,0,0,1,1,1,1
8,376,1,1,1,0,0.000106,0.001268,0.075181,1.2,1.5,2,0,0,0,0,0,0,0,0,0,15.2196,-7.03925,-15.2077,7.04061,1,1,1,1
8,376,1,1,1,0,0.000077,0.001272,0.075722,1.2,1.5,2,0,0,0,0,0,0,0,0,0,0,0,0,0,1,1,1,1
8,950,1,1,1,1,0.000132,0.017733,0,1.2,1.5,2,0,0,1.047619,0,0,0,0,0,0,-1.05811,1.52257,1.05857,-1.46058,1,1,1,1
8,952,1,1,1,1,0.000132,0.017933,0,1.2,1.5,2,0,0,1.047619,0,0,0,0,0,0,-1.04017,1.49858,1.04061,-1.43789,1,1,1,1
9,5,1,1,1,0,0.00022,0.003583,0.214905,1.2,1.5,2,0,0,0,0,0,0,0,0,0,13.3802,-7.2735,-13.3584,7.12713,1,1,1,1
9,5,1,1,1,0,0.00022,0.003583,0.214905,1.2,1.5,2,0,0,0,0,0,0,0,0,0,0,0,0,0,1,1,1,1
9,653,1,1,1,1,0.000283,0.022821,0,1.2,1.5,2,0,0,1.047619,0,0,0,0,0,0,-6.78761,3.51306,6.80333,-2.24527,1,1,1,1
9,654,1,1,1,1,0.000283,0.022821,0,1.2,1.5,2,0,0,1.047619,0,0,0,0,0,0,-6.59299,3.76049,6.60849,-2.51017,1,1,1,1
10,5,1,1,1,0,0.00022,0.003583,0.214905,1.2,1.5,2,0,0,0,0,0,0,0,0,0,12.7333,-7.04323,-12.7134,6.86533,1,1,1,1
10,5,1,1,1,0,0.00022,0.003583,0.214905,1.2,1.5,2,0,0,0,0,0,0,0,0,0,0,0,0,0,1,1,1,1
10,655,1,1,1,1,0.000283,0.022821,0,1.2,1.5,2,0,0,1.047619,0,0,0,0,0,0,-6.22743,3.42076,6.24101,-2.3258,1,1,1,1
10,656,1,1,1,1,0.000283,0.022821,0,1.2,1.5,2,0,0,1.047619,0,0,0,0,0,0,-6.50624,3.62253,6.52116,-2.41974,1,1,1,1
11,5,1,1,1,0,0.00006,0.001267,0.089923,1.2,1.5,2,0,0,0,0,0,0,0,0,0,4.74635,9.64693,-4.7434,-9.79988,1,1,1,1
11,5,1,1,1,0,0.000059,0.001266,0.092301,1.2,1.5,2,0,0,0,0,0,0,0,0,0,0,0,0,0,1,1,1,1
11,240,1,1,1,0,0.000232,0.003765,0.237959,1.2,1.5,2,0,0,0,0,0,0,0,0,0,-1.79539,11.098,1.80844,-11.4388,1,1,1,1
11,240,1,1,1,0,0.000236,0.003788,0.234064,1.2,1.5,2,0,0,0,0,0,0,0,0,0,0,0,0,0,1,1,1,1
11,2242,1,1,1,1,0.0001,0.001,0,1.2,1.5,2,0,0,1,0,0,0,0,0,0,-0.00235181,12.6245,0.015751,-12.4905,1,1,1,1
11,2243,1,1,1,1,0.0001,0.001,0,1.2,1.5,2,0,0,1,0,0,0,0,0,0,-0.00314265,-12.5738,0.0164343,12.7067,1,1,1,1
12,11,1,1,1,0,0.00048,0.009556,0.561815,1.2,1.5,2,0,0,0,0,0,0,0,0,0,49.2127,-15.8334,-48.8628,21.3291,1,1,1,1
12,11,1,1,1,0,0.000412,0.009012,0.568609,1.2,1.5,2,0,0,0,0,0,0,0,0,0,0,0,0,0,1,1,1,1
12,11,1,1,1,0,0.00041,0.009021,0.570427,1.2,1.5,2,0,0,0,0,0,0,0,0,0,0,0,0,0,1,1,1,1
12,661,1,1,1,1,0.000279,0.02242,0,1.2,1.5,2,0,0,1.047619,0,0,0,0,0,0,-6.18956,2.09136,6.20156,-1.12736,1,1,1,1
12,662,1,1,1,1,0.000279,0.02242,0,1.2,1.5,2,0,0,1.047619,0,0,0,0,0,0,-5.99434,2.06751,6.00564,-1.15946,1,1,1,1
12,663,1,1,1,1,0.000279,0.02242,0,1.2,1.5,2,0,0,1.047619,0,0,0,0,0,0,-6.05254,1.81815,6.06377,-0.916154,1,1,1,1
12,664,1,1,1,1,0.000279,0.02242,0,1.2,1.5,2,0,0,1.047619,0,0,0,0,0,0,-6.09845,1.99517,6.11003,-1.06532,1,1,1,1
12,665,1,1,1,1,0.000279,0.02242,0,1.2,1.5,2,0,0,1.047619,0,0,0,0,0,0,-6.31953,2.00852,6.33189,-1.01547,1,1,1,1
12,666,1,1,1,1,0.000279,0.02242,0,1.2,1.5,2,0,0,1.047619,0,0,0,0,0,0,-6.18785,1.88828,6.19961,-0.94301,1,1,1,1
12,667,1,1,1,1,0.000279,0.02242,0,1.2,1.5,2,0,0,1.047619,0,0,0,0,0,0,-6.27256,1.96458,6.28471,-0.988832,1,1,1,1
12,668,1,1,1,1,0.000279,0.02242,0,1.2,1.5,2,0,0,1.047619,0,0,0,0,0,0,-6.09965,1.99972,6.11123,-1.06914,1,1,1,1
13,14,1,1,1,0,0.000765,0.011613,0.903526,1.2,1.5,2,0,0,0,0,0,0,0,0,0,-7.05989,-1.7077,7.0824,0.114762,1,1,1,1
13,14,1,1,1,0,0.001077,0.011727,0.905707,1.2,1.5,2,0,0,0,0,0,0,0,0,0,0,0,0,0,1,1,1,1
13,47,1,1,1,0,0.000024,0.000298,0.019032,1.2,1.5,2,0,0,0,0,0,0,0,0,0,-1.75166,0.755705,1.75171,-0.797334,1,1,1,1
13,47,1,1,1,0,0.000028,0.000334,0.02194,1.2,1.5,2,0,0,0,0,0,0,0,0,0,0,0,0,0,1,1,1,1
13,191,1,1,1,0,0.000641,0.008128,0.49089,1.2,1.5,2,0,0,0,0,0,0,0,0,0,0.305518,-0.0357166,-0.305428,-0.953093,1,1,1,1
13,191,1,1,1,0,0.000571,0.007928,0.47224,1.2,1.5,2,0,0,0,0,0,0,0,0,0,0,0,0,0,1,1,1,1
13,878,1,1,1,1,0.000087,0.019007,0,1.2,1.5,2,0,0,1,0,0,0,0,0,0,3.06695,0.232636,-3.06615,-0.0580342,1,1,1,1
13,880,1,1,1,1,0.000091,0.017934,0,1.2,1.5,2,0,0,1,0,0,0,0,0,0,3.23715,0.150174,-3.23623,0.0327076,1,1,1,1
15,16,1,1,1,0,0.000911,0.011365,0.64438,1.2,1.5,2,0,0,0,0,0,0,0,0,0,8.70378,-0.348566,-8.67202,-0.648078,1,1,1,1
15,16,1,1,1,0,0.000883,0.011163,0.664069,1.2,1.5,2,0,0,0,0,0,0,0,0,0,0,0,0,0,1,1,1,1
15,266,1,1,1,0,0.001171,0.015936,0.962697,1.2,1.5,2,0,0,0,0,0,0,0,0,0,4.71761,2.49572,-4.68337,-3.01318,1,1,1,1
15,423,1,1,1,0,0.000307,0.004099,0.251806,1.2,1.5,2,0,0,0,0,0,0,0,0,0,1.5735,1.47021,-1.57271,-2.003,1,1,1,1
15,423,1,1,1,0,0.000303,0.004095,0.257172,1.2,1.5,2,0,0,0,0,0,0,0,0,0,0,0,0,0,1,1,1,1
15,911,1,1,1,1,0.000089,0.018327,0,1.2,1.5,2,0,0,1,0,0,0,0,0,0,1.8431,0.400829,-1.8428,-0.339968,1,1,1,1
15,913,1,1,1,1,0.000095,0.01758,0,1.2,1.5,2,0,0,1,0,0,0,0,0,0,1.90656,0.519428,-1.90622,-0.455351,1,1,1,1
17,18,1,1,1,0,0.001844,0.010714,0.009685,1.2,1.5,2,0,0,0,0,0,0,0,0,0,0.64028,-0.0958718,-0.639543,0.0900289,1,1,1,1
17,424,1,1,1,0,0.002908,0.016151,0.016619,1.2,1.5,2,0,0,0,0,0,0,0,0,0,-0.557136,-0.231122,0.557626,0.198906,1,1,1,1
17,424,1,1,1,0,0.002847,0.016171,0.016735,1.2,1.5,2,0,0,0,0,0,0,0,0,0,0,0,0,0,1,1,1,1
17,489,1,1,1,0,0.001528,0.007624,0.009177,1.2,1.5,2,0,0,0,0,0,0,0,0,0,-0.102594,0.376624,0.102708,-0.395009,1,1,1,1
17,489,1,1,1,0,0.00146,0.007515,0.008978,1.2,1.5,2,0,0,0,0,0,0,0,0,0,0,0,0,0,1,1,1,1
17,820,1,1,1,1,0.000983,0.141021,0,1.2,1.5,2,0,0,1.056957,0,0,0,0,0,0,0.0194812,-0.0496424,-0.0194782,0.0500708,1,1,1,1
18,103,1,1,1,0,0.001837,0.0108,0.01004,1.2,1.5,2,0,0,0,0,0,0,0,0,0,0.720828,-0.0694042,-0.72037,0.0515783,1,1,1,1
18,103,1,1,1,0,0.001819,0.010698,0.009589,1.2,1.5,2,0,0,0,0,0,0,0,0,0,0,0,0,0,1,1,1,1
18,1343,1,1,1,1,0.001493,0.095671,0,1.2,1.5,2,0,0,1.0375,0,0,0,0,0,0,0.584493,0.0760867,-0.583959,-0.041865,1,1,1,1
18,1688,1,1,1,1,0.001248,0.09586,0,1.2,1.5,2,0,0,1.040217,0,0,0,0,0,0,0.571929,0.028163,-0.571506,0.00436894,1,1,1,1
19,20,1,1,1,0,0.000689,0.007231,0.006951,1.2,1.5,2,0,0,0,0,0,0,0,0,0,-1.10516,-0.0221761,1.10599,0.0237897,1,1,1,1
19,1385,1,1,1,1,0.00066,0.055694,0,1.2,1.5,2,0,0,0.956522,0,0,0,0,0,0,0.397944,0.0483088,-0.397848,-0.040256,1,1,1,1
19,1388,1,1,1,1,0.00066,0.055694,0,1.2,1.5,2,0,0,0.956522,0,0,0,0,0,0,0.397944,0.0483088,-0.397848,-0.040256,1,1,1,1
19,1391,1,1,1,1,0.00066,0.055694,0,1.2,1.5,2,0,0,0.956522,0,0,0,0,0,0,0.397944,0.0483088,-0.397848,-0.040256,1,1,1,1
19,1394,1,1,1,1,0.00066,0.055694,0,1.2,1.5,2,0,0,0.956522,0,0,0,0,0,0,0.397944,0.0483088,-0.397848,-0.040256,1,1,1,1
19,1397,1,1,1,1,0.02725,0.685,0,1.2,1.5,2,0,0,0.956522,0,0,0,0,0,0,0.399925,0.0583051,-0.39592,0.0423705,1,1,1,1
20,25,1,1,1,0,0.0015,0.0091,0.014458,1.2,1.5,2,0,0,0,0,0,0,0,0,0,-1.44647,0.245425,1.44964,-0.240891,1,1,1,1
20,1567,1,1,1,1,0.001796,0.123333,0,1.2,1.5,2,0,0,1.03,0,0,0,0,0,0,0.0883958,0.032353,-0.0883792,-0.0312149,1,1,1,1
20,1570,1,1,1,1,0.00104,0.120542,0,1.2,1.5,2,0,0,1.03,0,0,0,0,0,0,0.0935326,0.0091959,-0.0935231,-0.00808704,1,1,1,1
21,22,1,1,1,0,0.002486,0.014977,0.013378,1.2,1.5,2,0,0,0,0,0,0,0,0,0,-0.893738,-0.00485046,0.895716,0.00330727,1,1,1,1
21,84,1,1,1,0,0.001129,0.007171,0.005946,1.2,1.5,2,0,0,0,0,0,0,0,0,0,-0.940339,-0.079845,0.94134,0.0802249,1,1,1,1
21,90,1,1,1,0,0.010027,0.060658,0.089623,1.2,1.5,2,0,0,0,0,0,0,0,0,0,-0.230227,-0.101596,0.230788,0.0144992,1,1,1,1
21,273,1,1,1,0,0.006163,0.040091,0.043877,1.2,1.5,2,0,0,0,0,0,0,0,0,0,2.07092,-0.0836358,-2.06107,0.0696994,1,1,1,1
21,273,1,1,1,0,0.003591,0.030321,0.043827,1.2,1.5,2,0,0,0,0,0,0,0,0,0,0,0,0,0,1,1,1,1
21,338,1,1,1,0,0.002935,0.015745,0.016082,1.2,1.5,2,0,0,0,0,0,0,0,0,0,0.327612,0.246532,-0.327108,-0.259896,1,1,1,1
22,729,1,1,1,1,0.003007,0.14,0,1.2,1.5,2,0,0,1.052174,0,0,0,0,0,0,-0.412057,-0.00653922,0.412618,0.0326415,1,1,1,1
22,937,1,1,1,1,0.003633,0.194,0,1.2,1.5,2,0,0,1.052174,0,0,0,0,0,0,-0.483631,0.00323763,0.484563,0.046579,1,1,1,1
23,24,1,1,1,0,0.000582,0.008027,0.491207,1.2,1.5,2,0,0,0,0,0,0,0,0,0,0.476244,0.00686114,-0.476078,-0.50773,1,1,1,1
23,191,1,1,1,0,0.00026,0.00443,0.230343,1.2,1.5,2,0,0,0,0,0,0,0,0,0,-0.476215,-0.0068593,0.476276,-0.228516,1,1,1,1
24,13,1,1,1,0,0.000568,0.006488,0.426457,1.2,1.5,2,0,0,0,0,0,0,0,0,0,-2.19989,-1.44164,2.2014,0.604777,1,1,1,1
24,13,1,1,1,0,0.000482,0.006543,0.407503,1.2,1.5,2,0,0,0,0,0,0,0,0,0,0,0,0,0,1,1,1,1
24,266,1,1,1,0,0.000694,0.010051,0.583802,1.2,1.5,2,0,0,0,0,0,0,0,0,0,0.900837,2.17386,-0.896136,-2.68775,1,1,1,1
24,891,1,1,1,1,0.000098,0.018073,0,1.2,1.5,2,0,0,1,0,0,0,0,0,0,3.19559,0.973379,-3.19452,-0.77604,1,1,1,1
24,893,1,1,1,1,0.000133,0.017927,0,1.2,1.5,2,0,0,1,0,0,0,0,0,0,3.2553,1.05234,-3.25377,-0.847031,1,1,1,1
25,350,1,1,1,0,0.014918,0.088091,0.167618,1.2,1.5,2,0,0,0,0,0,0,0,0,0,0.722442,-0.26466,-0.714328,0.140636,1,1,1,1
25,680,1,1,1,1,0.001138,0.055291,0,1.2,1.5,2,0,0,1.052174,0,0,0,0,0,0,-1.41027,0.331047,1.41287,-0.204944,1,1,1,1
25,681,1,1,1,1,0.00117,0.055665,0,1.2,1.5,2,0,0,1.052174,0,0,0,0,0,0,-1.48647,0.283687,1.48938,-0.145139,1,1,1,1
25,682,1,1,1,1,0.001174,0.064125,0,1.2,1.5,2,0,0,1.052174,0,0,0,0,0,0,-1.49343,0.245879,1.49635,-0.0862243,1,1,1,1
26,19,1,1,1,0,0.000121,0.001213,0.001545,1.2,1.5,2,0,0,0,0,0,0,0,0,0,0.886537,0.228829,-0.886437,-0.229401,1,1,1,1
26,25,1,1,1,0,0.003236,0.017933,0.026147,1.2,1.5,2,0,0,0,0,0,0,0,0,0,-2.21026,0.348647,2.21843,-0.354943,1,1,1,1
26,25,1,1,1,0,0.003378,0.017987,0.023594,1.2,1.5,2,0,0,0,0,0,0,0,0,0,0,0,0,0,1,1,1,1
26,335,1,1,1,0,0.003442,0.019028,0.040688,1.2,1.5,2,0,0,0,0,0,0,0,0,0,0.305262,-0.157401,-0.304884,0.118025,1,1,1,1
26,1159,1,1,1,1,0.001777,0.120541,0,1.2,1.5,2,0,0,1.03,0,0,0,0,0,0,0.592646,0.111077,-0.591972,-0.0653875,1,1,1,1
26,1162,1,1,1,1,0.001811,0.119582,0,1.2,1.5,2,0,0,1.03,0,0,0,0,0,0,0.588123,0.103913,-0.587449,-0.0594449,1,1,1,1
27,20,1,1,1,0,0.002429,0.015431,0.02063,1.2,1.5,2,0,0,0,0,0,0,0,0,0,-0.152125,0.19444,0.152279,-0.214531,1,1,1,1
27,350,1,1,1,0,0.011583,0.071461,0.127677,1.2,1.5,2,0,0,0,0,0,0,0,0,0,0.674643,-0.218627,-0.66923,0.120689,1,1,1,1
27,639,1,1,1,0,0.004407,0.033662,0.058187,1.2,1.5,2,0,0,0,0,0,0,0,0,0,-0.00153505,-0.0633669,0.00153991,0.00373932,1,1,1,1
27,644,1,1,1,0,0.000835,0.006732,0.013288,1.2,1.5,2,0,0,0,0,0,0,0,0,0,-0.00141967,-0.0155203,0.00141973,0.00190969,1,1,1,1
27,1868,1,1,1,1,0.001384,0.096966,0,1.2,1.5,2,0,0,1.045,0,0,0,0,0,0,0.142531,0.0122591,-0.142501,-0.0101433,1,1,1,1
27,1871,1,1,1,1,0.001388,0.097467,0,1.2,1.5,2,0,0,1.0375,0,0,0,0,0,0,0.142156,0.0136452,-0.142126,-0.0115562,1,1,1,1
28,27,1,1,1,0,0.018376,0.079203,0.075271,1.2,1.5,2,0,0,0,0,0,0,0,0,0,-0.27668,-0.00816723,0.278078,-0.0626833,1,1,1,1
28,56,1,1,1,0,0.001396,0.011485,0.021487,1.2,1.5,2,0,0,0,0,0,0,0,0,0,0.748072,-0.338579,-0.747157,0.324159,1,1,1,1
28,529,1,1,1,0,0.002025,0.014611,0.026128,1.2,1.5,2,0,0,0,0,0,0,0,0,0,0.000679665,-0.0638125,-0.000674591,0.0372221,1,1,1,1
28,637,1,1,1,0,0.000501,0.017713,0.047506,1.2,1.5,2,0,0,0,0,0,0,0,0,0,0.00202575,-0.151137,-0.00201782,0.102932,1,1,1,1
28,1165,1,1,1,1,0.001698,0.122374,0,1.2,1.5,2,0,0,1.042609,0,0,0,0,0,0,0.47888,0.112382,-0.478442,-0.0807759,1,1,1,1
28,2166,1,1,1,1,0.000888,0.08138,0,1.2,1.5,2,0,0,1.028261,0,0,0,0,0,0,0.754322,0.0566615,-0.753795,-0.00831346,1,1,1,1
29,30,1,1,1,0,0.002735,0.012637,0.009455,1.2,1.5,2,0,0,0,0,0,0,0,0,0,-1.68205,0.740184,1.68426,-0.761701,1,1,1,1
29,30,1,1,1,0,0.002174,0.01228,0.010813,1.2,1.5,2,0,0,0,0,0,0,0,0,0,0,0,0,0,1,1,1,1
29,30,1,1,1,0,0.001435,0.009735,0.012543,1.2,1.5,2,0,0,0,0,0,0,0,0,0,0,0,0,0,1,1,1,1
29,344,1,1,1,0,0.002514,0.015016,0.04,1.2,1.5,2,0,0,0,0,0,0,0,0,0,0.378766,-0.597571,-0.378169,0.517303,1,1,1,1
29,344,1,1,1,0,0.002859,0.012614,0.04,1.2,1.5,2,0,0,0,0,0,0,0,0,0,0,0,0,0,1,1,1,1
29,1373,1,1,1,1,0.002053,0.118333,0,1.2,1.5,2,0,0,1.042609,0,0,0,0,0,0,0.660621,-0.0810213,-0.659668,0.135946,1,1,1,1
29,1376,1,1,1,1,0.002626,0.119749,0,1.2,1.5,2,0,0,1.042609,0,0,0,0,0,0,0.642356,-0.0468631,-0.641214,0.0989104,1,1,1,1
30,146,1,1,1,0,0.006495,0.049202,0.084323,1.2,1.5,2,0,0,0,0,0,0,0,0,0,-0.611535,0.00625612,0.6139,-0.0757005,1,1,1,1
30,471,1,1,1,0,0.00836,0.046289,0.044284,1.2,1.5,2,0,0,0,0,0,0,0,0,0,0.468414,-0.161982,-0.466484,0.126756,1,1,1,1
30,831,1,1,1,1,0.00008,-0.001693,0,1.2,1.5,2,0,0,1,0,0,0,0,0,0,-4.06342,-0.228118,4.0647,0.200999,1,1,1,1
30,833,1,1,1,1,0.000066,-0.00172,0,1.2,1.5,2,0,0,1,0,0,0,0,0,0,-4.1029,0.91833,4.10403,-0.947734,1,1,1,1
31,32,1,1,1,0,0.003371,0.021122,0.032756,1.2,1.5,2,0,0,0,0,0,0,0,0,0,-0.769596,0.174214,0.771726,-0.193423,1,1,1,1
31,65,1,1,1,0,0.003701,0.020509,0.020904,1.2,1.5,2,0,0,0,0,0,0,0,0,0,-0.69959,-0.0833459,0.70143,0.0726549,1,1,1,1
31,142,1,1,1,0,0.005691,0.032224,0.036095,1.2,1.5,2,0,0,0,0,0,0,0,0,0,-1.62878,0.144257,1.64411,-0.0936059,1,1,1,1
31,143,1,1,1,0,0.005463,0.032346,0.035289,1.2,1.5,2,0,0,0,0,0,0,0,0,0,-0.208823,-0.0916448,0.209092,0.0580005,1,1,1,1
31,160,1,1,1,0,0.002364,0.023894,0.048071,1.2,1.5,2,0,0,0,0,0,0,0,0,0,-3.59037,-0.0800209,3.60567,0.140287,1,1,1,1
31,160,1,1,1,0,0.002358,0.023885,0.04636,1.2,1.5,2,0,0,0,0,0,0,0,0,0,0,0,0,0,1,1,1,1
31,874,1,1,1,1,0.00008,-0.002463,0,1.2,1.5,2,0,0,1.05,0,0,0,0,0,0,2.05595,-0.11509,-2.05557,0.103519,1,1,1,1
31,876,1,1,1,1,0.000083,-0.002467,0,1.2,1.5,2,0,0,1.05,0,0,0,0,0,0,2.05661,-0.115472,-2.05622,0.103874,1,1,1,1
31,972,1,1,1,1,0.000062,-0.002233,0,1.2,1.5,2,0,0,1.05,0,0,0,0,0,0,2.01997,-0.108969,-2.01969,0.0988443,1,1,1,1
32,679,1,1,1,1,0.005478,0.2,0,1.2,1.5,2,0,0,1.078478,0,0,0,0,0,0,-0.35817,0.170234,0.35918,-0.133373,1,1,1,1
32,861,1,1,1,1,0.005544,0.2759,0,1.2,1.5,2,0,0,1.104783,0,0,0,0,0,0,-0.0829765,-0.0395237,0.0830341,0.0423898,1,1,1,1
33,30,1,1,1,0,0.001321,0.009384,0.012474,1.2,1.5,2,0,0,0,0,0,0,0,0,0,-1.33045,0.0691032,1.33272,-0.0658365,1,1,1,1
33,131,1,1,1,0,0.000038,0.000285,0.000546,1.2,1.5,2,0,0,0,0,0,0,0,0,0,-0.79702,-0.80404,0.797068,0.80383,1,1,1,1
34,30,1,1,1,0,0.000979,0.00966,0.013727,1.2,1.5,2,0,0,0,0,0,0,0,0,0,-2.10363,-0.533922,2.10624,0.529226,1,1,1,1
34,30,1,1,1,0,0.001301,0.00966,0.012285,1.2,1.5,2,0,0,0,0,0,0,0,0,0,0,0,0,0,1,1,1,1
35,36,1,1,1,0,0.001396,0.020366,1.115229,1.2,1.5,2,0,0,0,0,0,0,0,0,0,-5.85811,1.07763,5.90727,-1.51464,1,1,1,1
35,89,1,1,1,0,0.0001,0.001,0.001,1.2,1.5,2,0,0,0,0,0,0,0,0,0,5.85798,-1.07761,-5.85461,1.11024,1,1,1,1
36,386,1,1,1,0,0.00031,0.004393,0.263317,1.2,1.5,2,0,0,0,0,0,0,0,0,0,10.0563,-2.03608,-10.0381,1.6652,1,1,1,1
36,386,1,1,1,0,0.000419,0.005851,0.352589,1.2,1.5,2,0,0,0,0,0,0,0,0,0,0,0,0,0,1,1,1,1
36,685,1,1,1,1,0.000301,0.023528,0,1.2,1.5,2,0,0,1.047619,0,0,0,0,0,0,-5.38537,0.947479,5.39509,-0.187939,1,1,1,1
36,686,1,1,1,1,0.000301,0.023528,0,1.2,1.5,2,0,0,1.047619,0,0,0,0,0,0,-5.39496,0.868138,5.40467,-0.10963,1,1,1,1
36,687,1,1,1,1,0.000301,0.023528,0,1.2,1.5,2,0,0,1.047619,0,0,0,0,0,0,-5.40235,1.05011,5.4122,-0.280707,1,1,1,1
36,688,1,1,1,1,0.000301,0.023528,0,1.2,1.5,2,0,0,1.047619,0,0,0,0,0,0,-5.29428,0.831831,5.30361,-0.102231,1,1,1,1
37,36,1,1,1,0,0.000241,0.003617,0.202708,1.2,1.5,2,0,0,0,0,0,0,0,0,0,-5.50566,0.0490996,5.51286,-0.146808,1,1,1,1
37,388,1,1,1,0,0.000112,0.001525,0.090368,1.2,1.5,2,0,0,0,0,0,0,0,0,0,2.57141,-1.36436,-2.57096,1.18221,1,1,1,1
37,388,1,1,1,0,0.000111,0.001526,0.095114,1.2,1.5,2,0,0,0,0,0,0,0,0,0,0,0,0,0,1,1,1,1
37,926,1,1,1,1,0.000107,0.0176,0,1.2,1.5,2,0,0,1.047619,0,0,0,0,0,0,1.47805,0.586882,-1.47775,-0.538732,1,1,1,1
37,928,1,1,1,1,0.000082,0.017533,0,1.2,1.5,2,0,0,1.047619,0,0,0,0,0,0,1.45575,0.728375,-1.45552,-0.678119,1,1,1,1
38,39,1,1,1,0,0.004141,0.021017,0.020353,1.2,1.5,2,0,0,0,0,0,0,0,0,0,1.68424,-0.181428,-1.67238,0.221308,1,1,1,1
38,693,1,1,1,1,0.000699,0.048036,0,1.2,1.5,2,0,0,1.052174,0,0,0,0,0,0,-2.17908,0.15905,2.18277,0.0946312,1,1,1,1
39,1093,1,1,1,1,0.001485,0.115747,0,1.2,1.5,2,0,0,0.9875,0,0,0,0,0,0,0.65494,0.295611,-0.654189,-0.237054,1,1,1,1
39,1096,1,1,1,1,0.001595,0.121915,0,1.2,1.5,2,0,0,0.985,0,0,0,0,0,0,0.738788,0.333962,-0.737766,-0.25584,1,1,1,1
40,39,1,1,1,0,0.003604,0.018745,0.017711,1.2,1.5,2,0,0,0,0,0,0,0,0,0,0.528537,0.189082,-0.527396,-0.200875,1,1,1,1
40,41,1,1,1,0,0.008034,0.03782,0.036698,1.2,1.5,2,0,0,0,0,0,0,0,0,0,1.78436,-0.463036,-1.75737,0.553001,1,1,1,1
40,695,1,1,1,1,0.000689,0.049679,0,1.2,1.5,2,0,0,1.052174,0,0,0,0,0,0,-1.10148,0.0551678,1.1024,0.0113021,1,1,1,1
40,696,1,1,1,1,0.001531,0.086144,0,1.2,1.5,2,0,0,0.921905,0,0,0,0,0,0,-1.08805,0.127391,1.0896,-0.0400846,1,1,1,1
41,274,1,1,1,0,0.00059,0.004896,0.007292,1.2,1.5,2,0,0,0,0,0,0,0,0,0,2.5166,0.718518,-2.51461,-0.714363,1,1,1,1
41,274,1,1,1,0,0.00059,0.004896,0.004903,1.2,1.5,2,0,0,0,0,0,0,0,0,0,0,0,0,0,1,1,1,1
41,365,1,1,1,0,0.008028,0.043709,0.043653,1.2,1.5,2,0,0,0,0,0,0,0,0,0,1.81871,-0.551172,-1.80502,0.53927,1,1,1,1
41,365,1,1,1,0,0.007589,0.043157,0.042598,1.2,1.5,2,0,0,0,0,0,0,0,0,0,0,0,0,0,1,1,1,1
41,1309,1,1,1,1,0.001481,0.0972,0,1.2,1.5,2,0,0,1.056957,0,0,0,0,0,0,0.413932,-0.0497192,-0.413649,0.0682891,1,1,1,1
41,1312,1,1,1,1,0.001474,0.0969,0,1.2,1.5,2,0,0,1.056957,0,0,0,0,0,0,0.413922,-0.0611143,-0.413639,0.0797606,1,1,1,1
42,43,1,1,1,0,0.020236,0.092944,0.085604,1.2,1.5,2,0,0,0,0,0,0,0,0,0,-1.9565,0.908756,2.04349,-0.601059,1,1,1,1
42,418,1,1,1,0,0.002661,0.014143,0.008641,1.2,1.5,2,0,0,0,0,0,0,0,0,0,1.08907,-0.867827,-1.08441,0.882974,1,1,1,1
42,1496,1,1,1,1,0.001493,0.096665,0,1.2,1.5,2,0,0,1.0875,0,0,0,0,0,0,0.398722,-0.0211263,-0.398467,0.0376502,1,1,1,1
42,1499,1,1,1,1,0.001025,0.080775,0,1.2,1.5,2,0,0,1.042609,0,0,0,0,0,0,0.468531,-0.0198046,-0.468309,0.0373111,1,1,1,1
43,694,1,1,1,1,0.000699,0.049893,0,1.2,1.5,2,0,0,1.052174,0,0,0,0,0,0,-2.04352,0.601076,2.04689,-0.360878,1,1,1,1
44,38,1,1,1,0,0.010052,0.040208,0.036321,1.2,1.5,2,0,0,0,0,0,0,0,0,0,-0.517116,0.11081,0.519971,-0.135728,1,1,1,1
44,40,1,1,1,0,0.00977,0.03908,0.03737,1.2,1.5,2,0,0,0,0,0,0,0,0,0,0.100354,-0.122577,-0.100151,0.0858996,1,1,1,1
44,130,1,1,1,0,0.000931,0.003722,0.007942,1.2,1.5,2,0,0,0,0,0,0,0,0,0,9.91E-06,-0.00799359,-9.90E-06,5.00E-05,1,1,1,1
44,1553,1,1,1,1,0.00066,0.290491,0,1.2,1.5,2,0,0,1,0,0,0,0,0,0,0.416725,0.0197544,-0.41661,0.0307957,1,1,1,1
45,46,1,1,1,0,0.000455,0.003124,0.015399,1.2,1.5,2,0,0,0,0,0,0,0,0,0,-0.616135,-0.0405796,0.616219,0.0204367,1,1,1,1
45,46,1,1,1,0,0.000448,0.00313,0.004819,1.2,1.5,2,0,0,0,0,0,0,0,0,0,0,0,0,0,1,1,1,1
45,209,1,1,1,0,0.004923,0.026664,0.022532,1.2,1.5,2,0,0,0,0,0,0,0,0,0,0.513677,-0.00360482,-0.513032,-0.0399657,1,1,1,1
45,209,1,1,1,0,0.005081,0.028116,0.023496,1.2,1.5,2,0,0,0,0,0,0,0,0,0,0,0,0,0,1,1,1,1
45,823,1,1,1,1,0.000151,0.037845,0,1.2,1.5,2,0,0,0.956522,0,0,0,0,0,0,0.105149,0.0166099,-0.105147,-0.016227,1,1,1,1
45,824,1,1,1,1,0.000208,0.037807,0,1.2,1.5,2,0,0,0.956522,0,0,0,0,0,0,-0.00220936,0.0022899,0.00220937,-0.00228955,1,1,1,1
45,825,1,1,1,1,0,0.037807,0,1.2,1.5,2,0,0,0.956522,0,0,0,0,0,0,-0.000209978,0.0126428,0.000209978,-0.0126374,1,1,1,1
45,828,1,1,1,1,0,0.037807,0,1.2,1.5,2,0,0,0.956522,0,0,0,0,0,0,-0.000209978,0.0126428,0.000209978,-0.0126374,1,1,1,1
...
